<?xml version="1.0" encoding="UTF-8"?>

<!-- generated on Mon Nov  4 16:27:17 2019 by Eclipse SUMO netgenerate Version UNKNOWN
<configuration xmlns:xsi="http://www.w3.org/2001/XMLSchema-instance" xsi:noNamespaceSchemaLocation="http://sumo.dlr.de/xsd/netgenerateConfiguration.xsd">

    <spider_network>
        <spider value="true"/>
        <spider.arm-number value="4"/>
        <spider.circle-number value="3"/>
        <spider.space-radius value="100"/>
    </spider_network>

    <output>
        <output-file value="diamondSpiderNet.net.xml"/>
    </output>

</configuration>
-->

<net version="1.0" junctionCornerDetail="5" limitTurnSpeed="5.50" xmlns:xsi="http://www.w3.org/2001/XMLSchema-instance" xsi:noNamespaceSchemaLocation="http://sumo.dlr.de/xsd/net_file.xsd">

    <location netOffset="300.00,300.00" convBoundary="0.00,0.00,600.00,600.00" origBoundary="-300.00,-300.00,300.00,300.00" projParameter="!"/>

    <edge id=":A1_0" function="internal">
        <lane id=":A1_0_0" index="0" speed="6.51" length="9.03" shape="298.40,307.20 298.05,304.75 297.00,303.00 295.25,301.95 292.80,301.60"/>
    </edge>
    <edge id=":A1_1" function="internal">
        <lane id=":A1_1_0" index="0" speed="13.89" length="14.40" shape="298.40,307.20 298.40,292.80"/>
    </edge>
    <edge id=":A1_2" function="internal">
        <lane id=":A1_2_0" index="0" speed="8.00" length="14.19" shape="298.40,307.20 298.95,303.35 300.60,300.60 303.35,298.95 307.20,298.40"/>
    </edge>
    <edge id=":A1_3" function="internal">
        <lane id=":A1_3_0" index="0" speed="3.65" length="4.67" shape="298.40,307.20 299.20,306.00 300.00,305.60 300.80,306.00 301.60,307.20"/>
    </edge>
    <edge id=":A1_4" function="internal">
        <lane id=":A1_4_0" index="0" speed="6.51" length="9.03" shape="307.20,301.60 304.75,301.95 303.00,303.00 301.95,304.75 301.60,307.20"/>
    </edge>
    <edge id=":A1_5" function="internal">
        <lane id=":A1_5_0" index="0" speed="13.89" length="14.40" shape="307.20,301.60 292.80,301.60"/>
    </edge>
    <edge id=":A1_6" function="internal">
        <lane id=":A1_6_0" index="0" speed="8.00" length="14.19" shape="307.20,301.60 303.35,301.05 300.60,299.40 298.95,296.65 298.40,292.80"/>
    </edge>
    <edge id=":A1_7" function="internal">
        <lane id=":A1_7_0" index="0" speed="3.65" length="4.67" shape="307.20,301.60 306.00,300.80 305.60,300.00 306.00,299.20 307.20,298.40"/>
    </edge>
    <edge id=":A1_8" function="internal">
        <lane id=":A1_8_0" index="0" speed="6.51" length="9.03" shape="301.60,292.80 301.95,295.25 303.00,297.00 304.75,298.05 307.20,298.40"/>
    </edge>
    <edge id=":A1_9" function="internal">
        <lane id=":A1_9_0" index="0" speed="13.89" length="14.40" shape="301.60,292.80 301.60,307.20"/>
    </edge>
    <edge id=":A1_10" function="internal">
        <lane id=":A1_10_0" index="0" speed="8.00" length="14.19" shape="301.60,292.80 301.05,296.65 299.40,299.40 296.65,301.05 292.80,301.60"/>
    </edge>
    <edge id=":A1_11" function="internal">
        <lane id=":A1_11_0" index="0" speed="3.65" length="4.67" shape="301.60,292.80 300.80,294.00 300.00,294.40 299.20,294.00 298.40,292.80"/>
    </edge>
    <edge id=":A1_12" function="internal">
        <lane id=":A1_12_0" index="0" speed="6.51" length="9.03" shape="292.80,298.40 295.25,298.05 297.00,297.00 298.05,295.25 298.40,292.80"/>
    </edge>
    <edge id=":A1_13" function="internal">
        <lane id=":A1_13_0" index="0" speed="13.89" length="14.40" shape="292.80,298.40 307.20,298.40"/>
    </edge>
    <edge id=":A1_14" function="internal">
        <lane id=":A1_14_0" index="0" speed="8.00" length="14.19" shape="292.80,298.40 296.65,298.95 299.40,300.60 301.05,303.35 301.60,307.20"/>
    </edge>
    <edge id=":A1_15" function="internal">
        <lane id=":A1_15_0" index="0" speed="3.65" length="4.67" shape="292.80,298.40 294.00,299.20 294.40,300.00 294.00,300.80 292.80,301.60"/>
    </edge>
    <edge id=":B1_0" function="internal">
        <lane id=":B1_0_0" index="0" speed="12.73" length="15.02" shape="405.33,301.60 402.80,302.09 399.87,303.56 396.55,306.00 392.84,309.42"/>
    </edge>
    <edge id=":B1_1" function="internal">
        <lane id=":B1_1_0" index="0" speed="13.89" length="17.05" shape="405.33,301.60 388.27,301.60"/>
    </edge>
    <edge id=":B1_2" function="internal">
        <lane id=":B1_2_0" index="0" speed="13.73" length="5.70" shape="405.33,301.60 402.16,301.05 399.91,300.00"/>
    </edge>
    <edge id=":B1_3" function="internal">
        <lane id=":B1_3_0" index="0" speed="3.65" length="2.34" shape="405.33,301.60 404.13,300.80 403.73,300.00"/>
    </edge>
    <edge id=":B1_16" function="internal">
        <lane id=":B1_16_0" index="0" speed="13.73" length="11.82" shape="399.91,300.00 398.64,299.41 394.78,296.67 390.58,292.84"/>
    </edge>
    <edge id=":B1_17" function="internal">
        <lane id=":B1_17_0" index="0" speed="3.65" length="2.34" shape="403.73,300.00 404.13,299.20 405.33,298.40"/>
    </edge>
    <edge id=":B1_4" function="internal">
        <lane id=":B1_4_0" index="0" speed="12.73" length="15.02" shape="392.84,290.58 396.55,294.00 399.87,296.44 402.80,297.91 405.33,298.40"/>
    </edge>
    <edge id=":B1_5" function="internal">
        <lane id=":B1_5_0" index="0" speed="9.73" length="21.49" shape="392.84,290.58 396.37,295.29 397.55,300.00 396.37,304.71 392.84,309.42"/>
    </edge>
    <edge id=":B1_6" function="internal">
        <lane id=":B1_6_0" index="0" speed="7.42" length="19.31" shape="392.84,290.58 396.69,295.40 397.21,298.84 394.41,300.91 388.27,301.60"/>
    </edge>
    <edge id=":B1_7" function="internal">
        <lane id=":B1_7_0" index="0" speed="3.65" length="4.67" shape="392.84,290.58 393.12,291.99 392.84,292.84 391.99,293.12 390.58,292.84"/>
    </edge>
    <edge id=":B1_8" function="internal">
        <lane id=":B1_8_0" index="0" speed="5.47" length="9.74" shape="388.27,298.40 391.37,298.05 392.78,297.01 392.52,295.27 390.58,292.84"/>
    </edge>
    <edge id=":B1_9" function="internal">
        <lane id=":B1_9_0" index="0" speed="13.89" length="17.05" shape="388.27,298.40 405.33,298.40"/>
    </edge>
    <edge id=":B1_10" function="internal">
        <lane id=":B1_10_0" index="0" speed="7.42" length="7.71" shape="388.27,298.40 394.41,299.09 395.64,300.00"/>
    </edge>
    <edge id=":B1_11" function="internal">
        <lane id=":B1_11_0" index="0" speed="3.65" length="2.34" shape="388.27,298.40 389.47,299.20 389.87,300.00"/>
    </edge>
    <edge id=":B1_18" function="internal">
        <lane id=":B1_18_0" index="0" speed="7.42" length="11.60" shape="395.64,300.00 397.21,301.16 396.69,304.60 392.84,309.42"/>
    </edge>
    <edge id=":B1_19" function="internal">
        <lane id=":B1_19_0" index="0" speed="3.65" length="2.34" shape="389.87,300.00 389.47,300.80 388.27,301.60"/>
    </edge>
    <edge id=":B1_12" function="internal">
        <lane id=":B1_12_0" index="0" speed="5.47" length="9.74" shape="390.58,307.16 392.52,304.73 392.78,302.99 391.37,301.95 388.27,301.60"/>
    </edge>
    <edge id=":B1_13" function="internal">
        <lane id=":B1_13_0" index="0" speed="8.54" length="16.33" shape="390.58,307.16 393.26,303.58 394.16,300.00 393.26,296.42 390.58,292.84"/>
    </edge>
    <edge id=":B1_14" function="internal">
        <lane id=":B1_14_0" index="0" speed="13.73" length="17.52" shape="390.58,307.16 394.78,303.33 398.64,300.59 402.16,298.95 405.33,298.40"/>
    </edge>
    <edge id=":B1_15" function="internal">
        <lane id=":B1_15_0" index="0" speed="3.65" length="4.67" shape="390.58,307.16 391.99,306.88 392.84,307.16 393.12,308.01 392.84,309.42"/>
    </edge>
    <edge id=":B2_0" function="internal">
        <lane id=":B2_0_0" index="0" speed="12.73" length="15.02" shape="298.40,405.33 297.91,402.80 296.44,399.87 294.00,396.55 290.58,392.84"/>
    </edge>
    <edge id=":B2_1" function="internal">
        <lane id=":B2_1_0" index="0" speed="13.89" length="17.05" shape="298.40,405.33 298.40,388.27"/>
    </edge>
    <edge id=":B2_2" function="internal">
        <lane id=":B2_2_0" index="0" speed="13.73" length="5.70" shape="298.40,405.33 298.95,402.16 300.00,399.91"/>
    </edge>
    <edge id=":B2_3" function="internal">
        <lane id=":B2_3_0" index="0" speed="3.65" length="2.34" shape="298.40,405.33 299.20,404.13 300.00,403.73"/>
    </edge>
    <edge id=":B2_16" function="internal">
        <lane id=":B2_16_0" index="0" speed="13.73" length="11.82" shape="300.00,399.91 300.59,398.64 303.33,394.78 307.16,390.58"/>
    </edge>
    <edge id=":B2_17" function="internal">
        <lane id=":B2_17_0" index="0" speed="3.65" length="2.34" shape="300.00,403.73 300.80,404.13 301.60,405.33"/>
    </edge>
    <edge id=":B2_4" function="internal">
        <lane id=":B2_4_0" index="0" speed="12.73" length="15.02" shape="309.42,392.84 306.00,396.55 303.56,399.87 302.09,402.80 301.60,405.33"/>
    </edge>
    <edge id=":B2_5" function="internal">
        <lane id=":B2_5_0" index="0" speed="9.73" length="21.49" shape="309.42,392.84 304.71,396.37 300.00,397.55 295.29,396.37 290.58,392.84"/>
    </edge>
    <edge id=":B2_6" function="internal">
        <lane id=":B2_6_0" index="0" speed="7.42" length="19.31" shape="309.42,392.84 304.60,396.69 301.16,397.21 299.09,394.41 298.40,388.27"/>
    </edge>
    <edge id=":B2_7" function="internal">
        <lane id=":B2_7_0" index="0" speed="3.65" length="4.67" shape="309.42,392.84 308.01,393.12 307.16,392.84 306.88,391.99 307.16,390.58"/>
    </edge>
    <edge id=":B2_8" function="internal">
        <lane id=":B2_8_0" index="0" speed="5.47" length="9.74" shape="301.60,388.27 301.95,391.37 302.99,392.78 304.73,392.52 307.16,390.58"/>
    </edge>
    <edge id=":B2_9" function="internal">
        <lane id=":B2_9_0" index="0" speed="13.89" length="17.05" shape="301.60,388.27 301.60,405.33"/>
    </edge>
    <edge id=":B2_10" function="internal">
        <lane id=":B2_10_0" index="0" speed="7.42" length="7.71" shape="301.60,388.27 300.91,394.41 300.00,395.64"/>
    </edge>
    <edge id=":B2_11" function="internal">
        <lane id=":B2_11_0" index="0" speed="3.65" length="2.34" shape="301.60,388.27 300.80,389.47 300.00,389.87"/>
    </edge>
    <edge id=":B2_18" function="internal">
        <lane id=":B2_18_0" index="0" speed="7.42" length="11.60" shape="300.00,395.64 298.84,397.21 295.40,396.69 290.58,392.84"/>
    </edge>
    <edge id=":B2_19" function="internal">
        <lane id=":B2_19_0" index="0" speed="3.65" length="2.34" shape="300.00,389.87 299.20,389.47 298.40,388.27"/>
    </edge>
    <edge id=":B2_12" function="internal">
        <lane id=":B2_12_0" index="0" speed="5.47" length="9.74" shape="292.84,390.58 295.27,392.52 297.01,392.78 298.05,391.37 298.40,388.27"/>
    </edge>
    <edge id=":B2_13" function="internal">
        <lane id=":B2_13_0" index="0" speed="8.54" length="16.33" shape="292.84,390.58 296.42,393.26 300.00,394.16 303.58,393.26 307.16,390.58"/>
    </edge>
    <edge id=":B2_14" function="internal">
        <lane id=":B2_14_0" index="0" speed="13.73" length="17.52" shape="292.84,390.58 296.67,394.78 299.41,398.64 301.05,402.16 301.60,405.33"/>
    </edge>
    <edge id=":B2_15" function="internal">
        <lane id=":B2_15_0" index="0" speed="3.65" length="4.67" shape="292.84,390.58 293.12,391.99 292.84,392.84 291.99,393.12 290.58,392.84"/>
    </edge>
    <edge id=":B3_0" function="internal">
        <lane id=":B3_0_0" index="0" speed="12.73" length="15.02" shape="207.16,309.42 203.45,306.00 200.13,303.56 197.20,302.09 194.67,301.60"/>
    </edge>
    <edge id=":B3_1" function="internal">
        <lane id=":B3_1_0" index="0" speed="9.73" length="21.49" shape="207.16,309.42 203.63,304.71 202.45,300.00 203.63,295.29 207.16,290.58"/>
    </edge>
    <edge id=":B3_2" function="internal">
        <lane id=":B3_2_0" index="0" speed="7.42" length="19.31" shape="207.16,309.42 203.31,304.60 202.79,301.16 205.59,299.09 211.73,298.40"/>
    </edge>
    <edge id=":B3_3" function="internal">
        <lane id=":B3_3_0" index="0" speed="3.65" length="4.67" shape="207.16,309.42 206.88,308.01 207.16,307.16 208.01,306.88 209.42,307.16"/>
    </edge>
    <edge id=":B3_4" function="internal">
        <lane id=":B3_4_0" index="0" speed="5.47" length="9.74" shape="211.73,301.60 208.63,301.95 207.22,302.99 207.48,304.73 209.42,307.16"/>
    </edge>
    <edge id=":B3_5" function="internal">
        <lane id=":B3_5_0" index="0" speed="13.89" length="17.05" shape="211.73,301.60 194.67,301.60"/>
    </edge>
    <edge id=":B3_6" function="internal">
        <lane id=":B3_6_0" index="0" speed="7.42" length="7.71" shape="211.73,301.60 205.59,300.91 204.36,300.00"/>
    </edge>
    <edge id=":B3_7" function="internal">
        <lane id=":B3_7_0" index="0" speed="3.65" length="2.34" shape="211.73,301.60 210.53,300.80 210.13,300.00"/>
    </edge>
    <edge id=":B3_16" function="internal">
        <lane id=":B3_16_0" index="0" speed="7.42" length="11.60" shape="204.36,300.00 202.79,298.84 203.31,295.40 207.16,290.58"/>
    </edge>
    <edge id=":B3_17" function="internal">
        <lane id=":B3_17_0" index="0" speed="3.65" length="2.34" shape="210.13,300.00 210.53,299.20 211.73,298.40"/>
    </edge>
    <edge id=":B3_8" function="internal">
        <lane id=":B3_8_0" index="0" speed="5.47" length="9.74" shape="209.42,292.84 207.48,295.27 207.22,297.01 208.63,298.05 211.73,298.40"/>
    </edge>
    <edge id=":B3_9" function="internal">
        <lane id=":B3_9_0" index="0" speed="8.54" length="16.33" shape="209.42,292.84 206.74,296.42 205.84,300.00 206.74,303.58 209.42,307.16"/>
    </edge>
    <edge id=":B3_10" function="internal">
        <lane id=":B3_10_0" index="0" speed="13.73" length="17.52" shape="209.42,292.84 205.22,296.67 201.36,299.41 197.84,301.05 194.67,301.60"/>
    </edge>
    <edge id=":B3_11" function="internal">
        <lane id=":B3_11_0" index="0" speed="3.65" length="4.67" shape="209.42,292.84 208.01,293.12 207.16,292.84 206.88,291.99 207.16,290.58"/>
    </edge>
    <edge id=":B3_12" function="internal">
        <lane id=":B3_12_0" index="0" speed="12.73" length="15.02" shape="194.67,298.40 197.20,297.91 200.13,296.44 203.45,294.00 207.16,290.58"/>
    </edge>
    <edge id=":B3_13" function="internal">
        <lane id=":B3_13_0" index="0" speed="13.89" length="17.05" shape="194.67,298.40 211.73,298.40"/>
    </edge>
    <edge id=":B3_14" function="internal">
        <lane id=":B3_14_0" index="0" speed="13.73" length="5.70" shape="194.67,298.40 197.84,298.95 200.09,300.00"/>
    </edge>
    <edge id=":B3_15" function="internal">
        <lane id=":B3_15_0" index="0" speed="3.65" length="2.34" shape="194.67,298.40 195.87,299.20 196.27,300.00"/>
    </edge>
    <edge id=":B3_18" function="internal">
        <lane id=":B3_18_0" index="0" speed="13.73" length="11.82" shape="200.09,300.00 201.36,300.59 205.22,303.33 209.42,307.16"/>
    </edge>
    <edge id=":B3_19" function="internal">
        <lane id=":B3_19_0" index="0" speed="3.65" length="2.34" shape="196.27,300.00 195.87,300.80 194.67,301.60"/>
    </edge>
    <edge id=":B4_0" function="internal">
        <lane id=":B4_0_0" index="0" speed="5.47" length="9.74" shape="298.40,211.73 298.05,208.63 297.01,207.22 295.27,207.48 292.84,209.42"/>
    </edge>
    <edge id=":B4_1" function="internal">
        <lane id=":B4_1_0" index="0" speed="13.89" length="17.05" shape="298.40,211.73 298.40,194.67"/>
    </edge>
    <edge id=":B4_2" function="internal">
        <lane id=":B4_2_0" index="0" speed="7.42" length="7.71" shape="298.40,211.73 299.09,205.59 300.00,204.36"/>
    </edge>
    <edge id=":B4_3" function="internal">
        <lane id=":B4_3_0" index="0" speed="3.65" length="2.34" shape="298.40,211.73 299.20,210.53 300.00,210.13"/>
    </edge>
    <edge id=":B4_16" function="internal">
        <lane id=":B4_16_0" index="0" speed="7.42" length="11.60" shape="300.00,204.36 301.16,202.79 304.60,203.31 309.42,207.16"/>
    </edge>
    <edge id=":B4_17" function="internal">
        <lane id=":B4_17_0" index="0" speed="3.65" length="2.34" shape="300.00,210.13 300.80,210.53 301.60,211.73"/>
    </edge>
    <edge id=":B4_4" function="internal">
        <lane id=":B4_4_0" index="0" speed="5.47" length="9.74" shape="307.16,209.42 304.73,207.48 302.99,207.22 301.95,208.63 301.60,211.73"/>
    </edge>
    <edge id=":B4_5" function="internal">
        <lane id=":B4_5_0" index="0" speed="8.54" length="16.33" shape="307.16,209.42 303.58,206.74 300.00,205.84 296.42,206.74 292.84,209.42"/>
    </edge>
    <edge id=":B4_6" function="internal">
        <lane id=":B4_6_0" index="0" speed="13.71" length="17.48" shape="307.16,209.42 304.30,206.33 301.45,202.60 299.27,198.59 298.40,194.67"/>
    </edge>
    <edge id=":B4_7" function="internal">
        <lane id=":B4_7_0" index="0" speed="3.65" length="4.67" shape="307.16,209.42 306.88,208.01 307.16,207.16 308.01,206.88 309.42,207.16"/>
    </edge>
    <edge id=":B4_8" function="internal">
        <lane id=":B4_8_0" index="0" speed="12.77" length="15.10" shape="301.60,194.67 302.33,198.24 304.19,201.47 306.71,204.42 309.42,207.16"/>
    </edge>
    <edge id=":B4_9" function="internal">
        <lane id=":B4_9_0" index="0" speed="13.89" length="17.05" shape="301.60,194.67 301.60,211.73"/>
    </edge>
    <edge id=":B4_10" function="internal">
        <lane id=":B4_10_0" index="0" speed="13.73" length="5.70" shape="301.60,194.67 301.05,197.84 300.00,200.09"/>
    </edge>
    <edge id=":B4_11" function="internal">
        <lane id=":B4_11_0" index="0" speed="3.65" length="2.34" shape="301.60,194.67 300.80,195.87 300.00,196.27"/>
    </edge>
    <edge id=":B4_18" function="internal">
        <lane id=":B4_18_0" index="0" speed="13.73" length="11.82" shape="300.00,200.09 299.41,201.36 296.67,205.22 292.84,209.42"/>
    </edge>
    <edge id=":B4_19" function="internal">
        <lane id=":B4_19_0" index="0" speed="3.65" length="2.34" shape="300.00,196.27 299.20,195.87 298.40,194.67"/>
    </edge>
    <edge id=":B4_12" function="internal">
        <lane id=":B4_12_0" index="0" speed="12.73" length="15.02" shape="290.58,207.16 294.00,203.45 296.44,200.13 297.91,197.20 298.40,194.67"/>
    </edge>
    <edge id=":B4_13" function="internal">
        <lane id=":B4_13_0" index="0" speed="9.73" length="21.49" shape="290.58,207.16 295.29,203.63 300.00,202.45 304.71,203.63 309.42,207.16"/>
    </edge>
    <edge id=":B4_14" function="internal">
        <lane id=":B4_14_0" index="0" speed="7.42" length="19.31" shape="290.58,207.16 295.40,203.31 298.84,202.79 300.91,205.59 301.60,211.73"/>
    </edge>
    <edge id=":B4_15" function="internal">
        <lane id=":B4_15_0" index="0" speed="3.65" length="4.67" shape="290.58,207.16 291.99,206.88 292.84,207.16 293.12,208.01 292.84,209.42"/>
    </edge>
    <edge id=":C1_0" function="internal">
        <lane id=":C1_0_0" index="0" speed="12.73" length="15.02" shape="505.33,301.60 502.80,302.09 499.87,303.56 496.55,306.00 492.84,309.42"/>
    </edge>
    <edge id=":C1_1" function="internal">
        <lane id=":C1_1_0" index="0" speed="13.89" length="17.05" shape="505.33,301.60 488.27,301.60"/>
    </edge>
    <edge id=":C1_2" function="internal">
        <lane id=":C1_2_0" index="0" speed="13.71" length="5.54" shape="505.33,301.60 501.41,300.73 500.07,300.00"/>
    </edge>
    <edge id=":C1_3" function="internal">
        <lane id=":C1_3_0" index="0" speed="3.65" length="2.34" shape="505.33,301.60 504.13,300.80 503.73,300.00"/>
    </edge>
    <edge id=":C1_16" function="internal">
        <lane id=":C1_16_0" index="0" speed="13.71" length="11.95" shape="500.07,300.00 497.40,298.55 493.67,295.70 490.58,292.84"/>
    </edge>
    <edge id=":C1_17" function="internal">
        <lane id=":C1_17_0" index="0" speed="3.65" length="2.34" shape="503.73,300.00 504.13,299.20 505.33,298.40"/>
    </edge>
    <edge id=":C1_4" function="internal">
        <lane id=":C1_4_0" index="0" speed="12.77" length="15.10" shape="492.84,290.58 495.58,293.29 498.53,295.81 501.76,297.67 505.33,298.40"/>
    </edge>
    <edge id=":C1_5" function="internal">
        <lane id=":C1_5_0" index="0" speed="9.73" length="21.49" shape="492.84,290.58 496.37,295.29 497.55,300.00 496.37,304.71 492.84,309.42"/>
    </edge>
    <edge id=":C1_6" function="internal">
        <lane id=":C1_6_0" index="0" speed="7.42" length="19.31" shape="492.84,290.58 496.69,295.40 497.21,298.84 494.41,300.91 488.27,301.60"/>
    </edge>
    <edge id=":C1_7" function="internal">
        <lane id=":C1_7_0" index="0" speed="3.65" length="4.67" shape="492.84,290.58 493.12,291.99 492.84,292.84 491.99,293.12 490.58,292.84"/>
    </edge>
    <edge id=":C1_8" function="internal">
        <lane id=":C1_8_0" index="0" speed="5.47" length="9.74" shape="488.27,298.40 491.37,298.05 492.78,297.01 492.52,295.27 490.58,292.84"/>
    </edge>
    <edge id=":C1_9" function="internal">
        <lane id=":C1_9_0" index="0" speed="13.89" length="17.05" shape="488.27,298.40 505.33,298.40"/>
    </edge>
    <edge id=":C1_10" function="internal">
        <lane id=":C1_10_0" index="0" speed="7.42" length="7.71" shape="488.27,298.40 494.41,299.09 495.64,300.00"/>
    </edge>
    <edge id=":C1_11" function="internal">
        <lane id=":C1_11_0" index="0" speed="3.65" length="2.34" shape="488.27,298.40 489.47,299.20 489.87,300.00"/>
    </edge>
    <edge id=":C1_18" function="internal">
        <lane id=":C1_18_0" index="0" speed="7.42" length="11.60" shape="495.64,300.00 497.21,301.16 496.69,304.60 492.84,309.42"/>
    </edge>
    <edge id=":C1_19" function="internal">
        <lane id=":C1_19_0" index="0" speed="3.65" length="2.34" shape="489.87,300.00 489.47,300.80 488.27,301.60"/>
    </edge>
    <edge id=":C1_12" function="internal">
        <lane id=":C1_12_0" index="0" speed="5.47" length="9.74" shape="490.58,307.16 492.52,304.73 492.78,302.99 491.37,301.95 488.27,301.60"/>
    </edge>
    <edge id=":C1_13" function="internal">
        <lane id=":C1_13_0" index="0" speed="8.54" length="16.33" shape="490.58,307.16 493.26,303.58 494.16,300.00 493.26,296.42 490.58,292.84"/>
    </edge>
    <edge id=":C1_14" function="internal">
        <lane id=":C1_14_0" index="0" speed="13.73" length="17.52" shape="490.58,307.16 494.78,303.33 498.64,300.59 502.16,298.95 505.33,298.40"/>
    </edge>
    <edge id=":C1_15" function="internal">
        <lane id=":C1_15_0" index="0" speed="3.65" length="4.67" shape="490.58,307.16 491.99,306.88 492.84,307.16 493.12,308.01 492.84,309.42"/>
    </edge>
    <edge id=":C2_0" function="internal">
        <lane id=":C2_0_0" index="0" speed="12.73" length="15.02" shape="298.40,505.33 297.91,502.80 296.44,499.87 294.00,496.55 290.58,492.84"/>
    </edge>
    <edge id=":C2_1" function="internal">
        <lane id=":C2_1_0" index="0" speed="13.89" length="17.05" shape="298.40,505.33 298.40,488.27"/>
    </edge>
    <edge id=":C2_2" function="internal">
        <lane id=":C2_2_0" index="0" speed="13.73" length="5.70" shape="298.40,505.33 298.95,502.16 300.00,499.91"/>
    </edge>
    <edge id=":C2_3" function="internal">
        <lane id=":C2_3_0" index="0" speed="3.65" length="2.34" shape="298.40,505.33 299.20,504.13 300.00,503.73"/>
    </edge>
    <edge id=":C2_16" function="internal">
        <lane id=":C2_16_0" index="0" speed="13.73" length="11.82" shape="300.00,499.91 300.59,498.64 303.33,494.78 307.16,490.58"/>
    </edge>
    <edge id=":C2_17" function="internal">
        <lane id=":C2_17_0" index="0" speed="3.65" length="2.34" shape="300.00,503.73 300.80,504.13 301.60,505.33"/>
    </edge>
    <edge id=":C2_4" function="internal">
        <lane id=":C2_4_0" index="0" speed="12.73" length="15.02" shape="309.42,492.84 306.00,496.55 303.56,499.87 302.09,502.80 301.60,505.33"/>
    </edge>
    <edge id=":C2_5" function="internal">
        <lane id=":C2_5_0" index="0" speed="9.73" length="21.49" shape="309.42,492.84 304.71,496.37 300.00,497.55 295.29,496.37 290.58,492.84"/>
    </edge>
    <edge id=":C2_6" function="internal">
        <lane id=":C2_6_0" index="0" speed="7.42" length="19.31" shape="309.42,492.84 304.60,496.69 301.16,497.21 299.09,494.41 298.40,488.27"/>
    </edge>
    <edge id=":C2_7" function="internal">
        <lane id=":C2_7_0" index="0" speed="3.65" length="4.67" shape="309.42,492.84 308.01,493.12 307.16,492.84 306.88,491.99 307.16,490.58"/>
    </edge>
    <edge id=":C2_8" function="internal">
        <lane id=":C2_8_0" index="0" speed="5.47" length="9.74" shape="301.60,488.27 301.95,491.37 302.99,492.78 304.73,492.52 307.16,490.58"/>
    </edge>
    <edge id=":C2_9" function="internal">
        <lane id=":C2_9_0" index="0" speed="13.89" length="17.05" shape="301.60,488.27 301.60,505.33"/>
    </edge>
    <edge id=":C2_10" function="internal">
        <lane id=":C2_10_0" index="0" speed="7.42" length="7.71" shape="301.60,488.27 300.91,494.41 300.00,495.64"/>
    </edge>
    <edge id=":C2_11" function="internal">
        <lane id=":C2_11_0" index="0" speed="3.65" length="2.34" shape="301.60,488.27 300.80,489.47 300.00,489.87"/>
    </edge>
    <edge id=":C2_18" function="internal">
        <lane id=":C2_18_0" index="0" speed="7.42" length="11.60" shape="300.00,495.64 298.84,497.21 295.40,496.69 290.58,492.84"/>
    </edge>
    <edge id=":C2_19" function="internal">
        <lane id=":C2_19_0" index="0" speed="3.65" length="2.34" shape="300.00,489.87 299.20,489.47 298.40,488.27"/>
    </edge>
    <edge id=":C2_12" function="internal">
        <lane id=":C2_12_0" index="0" speed="5.47" length="9.74" shape="292.84,490.58 295.27,492.52 297.01,492.78 298.05,491.37 298.40,488.27"/>
    </edge>
    <edge id=":C2_13" function="internal">
        <lane id=":C2_13_0" index="0" speed="8.54" length="16.33" shape="292.84,490.58 296.42,493.26 300.00,494.16 303.58,493.26 307.16,490.58"/>
    </edge>
    <edge id=":C2_14" function="internal">
        <lane id=":C2_14_0" index="0" speed="13.73" length="17.52" shape="292.84,490.58 296.67,494.78 299.41,498.64 301.05,502.16 301.60,505.33"/>
    </edge>
    <edge id=":C2_15" function="internal">
        <lane id=":C2_15_0" index="0" speed="3.65" length="4.67" shape="292.84,490.58 293.12,491.99 292.84,492.84 291.99,493.12 290.58,492.84"/>
    </edge>
    <edge id=":C3_0" function="internal">
        <lane id=":C3_0_0" index="0" speed="12.73" length="15.02" shape="107.16,309.42 103.45,306.00 100.13,303.56 97.20,302.09 94.67,301.60"/>
    </edge>
    <edge id=":C3_1" function="internal">
        <lane id=":C3_1_0" index="0" speed="9.73" length="21.49" shape="107.16,309.42 103.63,304.71 102.45,300.00 103.63,295.29 107.16,290.58"/>
    </edge>
    <edge id=":C3_2" function="internal">
        <lane id=":C3_2_0" index="0" speed="7.42" length="19.31" shape="107.16,309.42 103.31,304.60 102.79,301.16 105.59,299.09 111.73,298.40"/>
    </edge>
    <edge id=":C3_3" function="internal">
        <lane id=":C3_3_0" index="0" speed="3.65" length="4.67" shape="107.16,309.42 106.88,308.01 107.16,307.16 108.01,306.88 109.42,307.16"/>
    </edge>
    <edge id=":C3_4" function="internal">
        <lane id=":C3_4_0" index="0" speed="5.47" length="9.74" shape="111.73,301.60 108.63,301.95 107.22,302.99 107.48,304.73 109.42,307.16"/>
    </edge>
    <edge id=":C3_5" function="internal">
        <lane id=":C3_5_0" index="0" speed="13.89" length="17.05" shape="111.73,301.60 94.67,301.60"/>
    </edge>
    <edge id=":C3_6" function="internal">
        <lane id=":C3_6_0" index="0" speed="7.42" length="7.71" shape="111.73,301.60 105.59,300.91 104.36,300.00"/>
    </edge>
    <edge id=":C3_7" function="internal">
        <lane id=":C3_7_0" index="0" speed="3.65" length="2.34" shape="111.73,301.60 110.53,300.80 110.13,300.00"/>
    </edge>
    <edge id=":C3_16" function="internal">
        <lane id=":C3_16_0" index="0" speed="7.42" length="11.60" shape="104.36,300.00 102.79,298.84 103.31,295.40 107.16,290.58"/>
    </edge>
    <edge id=":C3_17" function="internal">
        <lane id=":C3_17_0" index="0" speed="3.65" length="2.34" shape="110.13,300.00 110.53,299.20 111.73,298.40"/>
    </edge>
    <edge id=":C3_8" function="internal">
        <lane id=":C3_8_0" index="0" speed="5.47" length="9.74" shape="109.42,292.84 107.48,295.27 107.22,297.01 108.63,298.05 111.73,298.40"/>
    </edge>
    <edge id=":C3_9" function="internal">
        <lane id=":C3_9_0" index="0" speed="8.54" length="16.33" shape="109.42,292.84 106.74,296.42 105.84,300.00 106.74,303.58 109.42,307.16"/>
    </edge>
    <edge id=":C3_10" function="internal">
        <lane id=":C3_10_0" index="0" speed="13.71" length="17.48" shape="109.42,292.84 106.33,295.70 102.60,298.55 98.59,300.73 94.67,301.60"/>
    </edge>
    <edge id=":C3_11" function="internal">
        <lane id=":C3_11_0" index="0" speed="3.65" length="4.67" shape="109.42,292.84 108.01,293.12 107.16,292.84 106.88,291.99 107.16,290.58"/>
    </edge>
    <edge id=":C3_12" function="internal">
        <lane id=":C3_12_0" index="0" speed="12.77" length="15.10" shape="94.67,298.40 98.24,297.67 101.47,295.81 104.42,293.29 107.16,290.58"/>
    </edge>
    <edge id=":C3_13" function="internal">
        <lane id=":C3_13_0" index="0" speed="13.89" length="17.05" shape="94.67,298.40 111.73,298.40"/>
    </edge>
    <edge id=":C3_14" function="internal">
        <lane id=":C3_14_0" index="0" speed="13.73" length="5.70" shape="94.67,298.40 97.84,298.95 100.09,300.00"/>
    </edge>
    <edge id=":C3_15" function="internal">
        <lane id=":C3_15_0" index="0" speed="3.65" length="2.34" shape="94.67,298.40 95.87,299.20 96.27,300.00"/>
    </edge>
    <edge id=":C3_18" function="internal">
        <lane id=":C3_18_0" index="0" speed="13.73" length="11.82" shape="100.09,300.00 101.36,300.59 105.22,303.33 109.42,307.16"/>
    </edge>
    <edge id=":C3_19" function="internal">
        <lane id=":C3_19_0" index="0" speed="3.65" length="2.34" shape="96.27,300.00 95.87,300.80 94.67,301.60"/>
    </edge>
    <edge id=":C4_0" function="internal">