<?xml version="1.0" encoding="UTF-8"?>

<!-- generated on Wed Feb  6 15:59:05 2019 by Eclipse SUMO netgenerate Version UNKNOWN
<configuration xmlns:xsi="http://www.w3.org/2001/XMLSchema-instance" xsi:noNamespaceSchemaLocation="http://sumo.dlr.de/xsd/netgenerateConfiguration.xsd">

    <town-sim_network>
        <town-sim value="true"/>
        <town-sim.file value="C:\Users\julinas\Downloads\output001.txt"/>
    </town-sim_network>

    <output>
        <output-file value="SUMOoutput001.net.xml"/>
    </output>

</configuration>
-->

<net version="1.0" junctionCornerDetail="5" limitTurnSpeed="5.50" xmlns:xsi="http://www.w3.org/2001/XMLSchema-instance" xsi:noNamespaceSchemaLocation="http://sumo.dlr.de/xsd/net_file.xsd">

    <location netOffset="0.00,0.00" convBoundary="0.00,0.00,990.00,990.00" origBoundary="0.00,0.00,990.00,990.00" projParameter="!"/>

    <edge id=":0_50_0" function="internal">
        <lane id=":0_50_0_0" index="0" speed="3.65" length="4.67" shape="0.00,501.60 -1.20,500.80 -1.60,500.00 -1.20,499.20 0.00,498.40"/>
    </edge>
    <edge id=":29_37_0" function="internal">
        <lane id=":29_37_0_0" index="0" speed="3.65" length="4.67" shape="288.40,370.00 289.20,368.80 290.00,368.40 290.80,368.80 291.60,370.00"/>
    </edge>
    <edge id=":29_43_0" function="internal">
        <lane id=":29_43_0_0" index="0" speed="13.89" length="14.40" shape="288.40,437.20 288.40,422.80"/>
    </edge>
    <edge id=":29_43_1" function="internal">
        <lane id=":29_43_1_0" index="0" speed="8.00" length="5.93" shape="288.40,437.20 288.95,433.35 290.00,431.60"/>
    </edge>
    <edge id=":29_43_2" function="internal">
        <lane id=":29_43_2_0" index="0" speed="3.65" length="2.34" shape="288.40,437.20 289.20,436.00 290.00,435.60"/>
    </edge>
    <edge id=":29_43_9" function="internal">
        <lane id=":29_43_9_0" index="0" speed="8.00" length="8.26" shape="290.00,431.60 290.60,430.60 293.35,428.95 297.20,428.40"/>
    </edge>
    <edge id=":29_43_10" function="internal">
        <lane id=":29_43_10_0" index="0" speed="3.65" length="2.34" shape="290.00,435.60 290.80,436.00 291.60,437.20"/>
    </edge>
    <edge id=":29_43_3" function="internal">
        <lane id=":29_43_3_0" index="0" speed="6.51" length="9.03" shape="297.20,431.60 294.75,431.95 293.00,433.00 291.95,434.75 291.60,437.20"/>
    </edge>
    <edge id=":29_43_4" function="internal">
        <lane id=":29_43_4_0" index="0" speed="8.00" length="14.19" shape="297.20,431.60 293.35,431.05 290.60,429.40 288.95,426.65 288.40,422.80"/>
    </edge>
    <edge id=":29_43_5" function="internal">
        <lane id=":29_43_5_0" index="0" speed="3.65" length="4.67" shape="297.20,431.60 296.00,430.80 295.60,430.00 296.00,429.20 297.20,428.40"/>
    </edge>
    <edge id=":29_43_6" function="internal">
        <lane id=":29_43_6_0" index="0" speed="6.51" length="9.03" shape="291.60,422.80 291.95,425.25 293.00,427.00 294.75,428.05 297.20,428.40"/>
    </edge>
    <edge id=":29_43_7" function="internal">
        <lane id=":29_43_7_0" index="0" speed="13.89" length="14.40" shape="291.60,422.80 291.60,437.20"/>
    </edge>
    <edge id=":29_43_8" function="internal">
        <lane id=":29_43_8_0" index="0" speed="3.65" length="2.34" shape="291.60,422.80 290.80,424.00 290.00,424.40"/>
    </edge>
    <edge id=":29_43_11" function="internal">
        <lane id=":29_43_11_0" index="0" speed="3.65" length="2.34" shape="290.00,424.40 289.20,424.00 288.40,422.80"/>
    </edge>
    <edge id=":29_44_0" function="internal">
        <lane id=":29_44_0_0" index="0" speed="3.65" length="4.67" shape="290.00,438.40 291.20,439.20 291.60,440.00 291.20,440.80 290.00,441.60"/>
    </edge>
    <edge id=":29_50_0" function="internal">
        <lane id=":29_50_0_0" index="0" speed="3.65" length="4.67" shape="291.60,500.00 290.80,501.20 290.00,501.60 289.20,501.20 288.40,500.00"/>
    </edge>
    <edge id=":40_37_0" function="internal">
        <lane id=":40_37_0_0" index="0" speed="3.65" length="4.67" shape="398.40,370.00 399.20,368.80 400.00,368.40 400.80,368.80 401.60,370.00"/>
    </edge>
    <edge id=":40_43_0" function="internal">
        <lane id=":40_43_0_0" index="0" speed="3.65" length="4.67" shape="400.00,428.40 401.20,429.20 401.60,430.00 401.20,430.80 400.00,431.60"/>
    </edge>
    <edge id=":40_49_0" function="internal">
        <lane id=":40_49_0_0" index="0" speed="3.65" length="4.67" shape="401.60,490.00 400.80,491.20 400.00,491.60 399.20,491.20 398.40,490.00"/>
    </edge>
    <edge id=":44_37_0" function="internal">
        <lane id=":44_37_0_0" index="0" speed="3.65" length="4.67" shape="438.40,370.00 439.20,368.80 440.00,368.40 440.80,368.80 441.60,370.00"/>
    </edge>
    <edge id=":44_48_0" function="internal">
        <lane id=":44_48_0_0" index="0" speed="3.65" length="4.67" shape="441.60,480.00 440.80,481.20 440.00,481.60 439.20,481.20 438.40,480.00"/>
    </edge>
    <edge id=":45_68_0" function="internal">
        <lane id=":45_68_0_0" index="0" speed="3.65" length="4.67" shape="450.00,681.60 448.80,680.80 448.40,680.00 448.80,679.20 450.00,678.40"/>
    </edge>
    <edge id=":45_83_0" function="internal">
        <lane id=":45_83_0_0" index="0" speed="3.65" length="4.67" shape="450.00,831.60 448.80,830.80 448.40,830.00 448.80,829.20 450.00,828.40"/>
    </edge>
    <edge id=":48_98_0" function="internal">
        <lane id=":48_98_0_0" index="0" speed="3.65" length="4.67" shape="480.00,981.60 478.80,980.80 478.40,980.00 478.80,979.20 480.00,978.40"/>
    </edge>
    <edge id=":49_34_0" function="internal">
        <lane id=":49_34_0_0" index="0" speed="3.65" length="4.67" shape="488.40,340.00 489.20,338.80 490.00,338.40 490.80,338.80 491.60,340.00"/>
    </edge>
    <edge id=":49_35_0" function="internal">
        <lane id=":49_35_0_0" index="0" speed="3.65" length="4.67" shape="490.00,351.60 488.80,350.80 488.40,350.00 488.80,349.20 490.00,348.40"/>
    </edge>
    <edge id=":49_37_0" function="internal">
        <lane id=":49_37_0_0" index="0" speed="6.51" length="9.03" shape="488.40,377.20 488.05,374.75 487.00,373.00 485.25,371.95 482.80,371.60"/>
    </edge>
    <edge id=":49_37_1" function="internal">
        <lane id=":49_37_1_0" index="0" speed="13.89" length="14.40" shape="488.40,377.20 488.40,362.80"/>
    </edge>
    <edge id=":49_37_2" function="internal">
        <lane id=":49_37_2_0" index="0" speed="3.65" length="2.34" shape="488.40,377.20 489.20,376.00 490.00,375.60"/>
    </edge>
    <edge id=":49_37_9" function="internal">
        <lane id=":49_37_9_0" index="0" speed="3.65" length="2.34" shape="490.00,375.60 490.80,376.00 491.60,377.20"/>
    </edge>
    <edge id=":49_37_3" function="internal">
        <lane id=":49_37_3_0" index="0" speed="13.89" length="14.40" shape="491.60,362.80 491.60,377.20"/>
    </edge>
    <edge id=":49_37_4" function="internal">
        <lane id=":49_37_4_0" index="0" speed="8.00" length="5.93" shape="491.60,362.80 491.05,366.65 490.00,368.40"/>
    </edge>
    <edge id=":49_37_5" function="internal">
        <lane id=":49_37_5_0" index="0" speed="3.65" length="2.34" shape="491.60,362.80 490.80,364.00 490.00,364.40"/>
    </edge>
    <edge id=":49_37_10" function="internal">
        <lane id=":49_37_10_0" index="0" speed="8.00" length="8.26" shape="490.00,368.40 489.40,369.40 486.65,371.05 482.80,371.60"/>
    </edge>
    <edge id=":49_37_11" function="internal">
        <lane id=":49_37_11_0" index="0" speed="3.65" length="2.34" shape="490.00,364.40 489.20,364.00 488.40,362.80"/>
    </edge>
    <edge id=":49_37_6" function="internal">
        <lane id=":49_37_6_0" index="0" speed="6.51" length="9.03" shape="482.80,368.40 485.25,368.05 487.00,367.00 488.05,365.25 488.40,362.80"/>
    </edge>
    <edge id=":49_37_7" function="internal">
        <lane id=":49_37_7_0" index="0" speed="8.00" length="14.19" shape="482.80,368.40 486.65,368.95 489.40,370.60 491.05,373.35 491.60,377.20"/>
    </edge>
    <edge id=":49_37_8" function="internal">
        <lane id=":49_37_8_0" index="0" speed="3.65" length="4.67" shape="482.80,368.40 484.00,369.20 484.40,370.00 484.00,370.80 482.80,371.60"/>
    </edge>
    <edge id=":49_41_0" function="internal">
        <lane id=":49_41_0_0" index="0" speed="3.65" length="4.67" shape="490.00,411.60 488.80,410.80 488.40,410.00 488.80,409.20 490.00,408.40"/>
    </edge>
    <edge id=":49_48_0" function="internal">
        <lane id=":49_48_0_0" index="0" speed="3.65" length="4.67" shape="491.60,480.00 490.80,481.20 490.00,481.60 489.20,481.20 488.40,480.00"/>
    </edge>
    <edge id=":4_44_0" function="internal">
        <lane id=":4_44_0_0" index="0" speed="3.65" length="4.67" shape="38.40,440.00 39.20,438.80 40.00,438.40 40.80,438.80 41.60,440.00"/>
    </edge>
    <edge id=":4_50_0" function="internal">
        <lane id=":4_50_0_0" index="0" speed="3.65" length="4.67" shape="41.60,500.00 40.80,501.20 40.00,501.60 39.20,501.20 38.40,500.00"/>
    </edge>
    <edge id=":54_69_0" function="internal">
        <lane id=":54_69_0_0" index="0" speed="3.65" length="4.67" shape="538.40,690.00 539.20,688.80 540.00,688.40 540.80,688.80 541.60,690.00"/>
    </edge>
    <edge id=":54_78_0" function="internal">
        <lane id=":54_78_0_0" index="0" speed="3.65" length="4.67" shape="540.00,781.60 538.80,780.80 538.40,780.00 538.80,779.20 540.00,778.40"/>
    </edge>
    <edge id=":54_83_0" function="internal">
        <lane id=":54_83_0_0" index="0" speed="3.65" length="4.67" shape="541.60,830.00 540.80,831.20 540.00,831.60 539.20,831.20 538.40,830.00"/>
    </edge>
    <edge id=":55_31_0" function="internal">
        <lane id=":55_31_0_0" index="0" speed="3.65" length="4.67" shape="548.40,310.00 549.20,308.80 550.00,308.40 550.80,308.80 551.60,310.00"/>
    </edge>
    <edge id=":55_35_0" function="internal">
        <lane id=":55_35_0_0" index="0" speed="3.65" length="4.67" shape="551.60,350.00 550.80,351.20 550.00,351.60 549.20,351.20 548.40,350.00"/>
    </edge>
    <edge id=":56_3_0" function="internal">
        <lane id=":56_3_0_0" index="0" speed="3.65" length="4.67" shape="560.00,31.60 558.80,30.80 558.40,30.00 558.80,29.20 560.00,28.40"/>
    </edge>
    <edge id=":56_70_0" function="internal">
        <lane id=":56_70_0_0" index="0" speed="3.65" length="4.67" shape="561.28,700.96 559.92,701.44 559.04,701.28 558.64,700.48 558.72,699.04"/>
    </edge>
    <edge id=":56_88_0" function="internal">
        <lane id=":56_88_0_0" index="0" speed="3.65" length="4.67" shape="559.28,881.43 558.57,880.18 558.57,879.28 559.28,878.75 560.72,878.57"/>
    </edge>
    <edge id=":59_98_0" function="internal">
        <lane id=":59_98_0_0" index="0" speed="3.65" length="4.67" shape="590.00,978.40 591.20,979.20 591.60,980.00 591.20,980.80 590.00,981.60"/>
    </edge>
    <edge id=":60_35_0" function="internal">
        <lane id=":60_35_0_0" index="0" speed="3.65" length="4.67" shape="600.00,348.40 601.20,349.20 601.60,350.00 601.20,350.80 600.00,351.60"/>
    </edge>
    <edge id=":60_38_0" function="internal">
        <lane id=":60_38_0_0" index="0" speed="3.65" length="4.67" shape="600.00,381.60 598.80,380.80 598.40,380.00 598.80,379.20 600.00,378.40"/>
    </edge>
    <edge id=":60_41_0" function="internal">
        <lane id=":60_41_0_0" index="0" speed="3.65" length="4.67" shape="600.00,408.40 601.20,409.20 601.60,410.00 601.20,410.80 600.00,411.60"/>
    </edge>
    <edge id=":60_45_0" function="internal">
        <lane id=":60_45_0_0" index="0" speed="3.65" length="4.67" shape="600.00,451.60 598.80,450.80 598.40,450.00 598.80,449.20 600.00,448.40"/>
    </edge>
    <edge id=":60_48_0" function="internal">
        <lane id=":60_48_0_0" index="0" speed="13.89" length="12.24" shape="604.63,484.10 601.60,482.77 598.91,482.01 596.13,481.68 592.80,481.60"/>
    </edge>
    <edge id=":60_48_1" function="internal">
        <lane id=":60_48_1_0" index="0" speed="9.65" length="4.86" shape="604.63,484.10 601.90,482.23 600.96,481.01"/>
    </edge>
    <edge id=":60_48_2" function="internal">
        <lane id=":60_48_2_0" index="0" speed="3.65" length="2.23" shape="604.63,484.10 603.92,482.85 603.92,482.07"/>
    </edge>
    <edge id=":60_48_9" function="internal">
        <lane id=":60_48_9_0" index="0" speed="9.65" length="8.78" shape="600.96,481.01 599.96,479.72 598.79,476.58 598.40,472.80"/>
    </edge>
    <edge id=":60_48_10" function="internal">
        <lane id=":60_48_10_0" index="0" speed="3.65" length="2.45" shape="603.92,482.07 603.92,481.96 604.63,481.42 606.06,481.24"/>
    </edge>
    <edge id=":60_48_3" function="internal">
        <lane id=":60_48_3_0" index="0" speed="8.37" length="10.08" shape="601.60,472.80 601.88,475.66 602.72,478.02 604.11,479.88 606.06,481.24"/>
    </edge>
    <edge id=":60_48_4" function="internal">
        <lane id=":60_48_4_0" index="0" speed="8.00" length="14.19" shape="601.60,472.80 601.05,476.65 599.40,479.40 596.65,481.05 592.80,481.60"/>
    </edge>
    <edge id=":60_48_5" function="internal">
        <lane id=":60_48_5_0" index="0" speed="3.65" length="4.67" shape="601.60,472.80 600.80,474.00 600.00,474.40 599.20,474.00 598.40,472.80"/>
    </edge>
    <edge id=":60_48_6" function="internal">
        <lane id=":60_48_6_0" index="0" speed="6.51" length="9.03" shape="592.80,478.40 595.25,478.05 597.00,477.00 598.05,475.25 598.40,472.80"/>
    </edge>
    <edge id=":60_48_7" function="internal">
        <lane id=":60_48_7_0" index="0" speed="13.89" length="13.70" shape="592.80,478.40 596.35,478.53 599.63,478.98 602.81,479.85 606.06,481.24"/>
    </edge>
    <edge id=":60_48_8" function="internal">
        <lane id=":60_48_8_0" index="0" speed="3.65" length="2.34" shape="592.80,478.40 594.00,479.20 594.40,480.00"/>
    </edge>
    <edge id=":60_48_11" function="internal">
        <lane id=":60_48_11_0" index="0" speed="3.65" length="2.34" shape="594.40,480.00 594.00,480.80 592.80,481.60"/>
    </edge>
    <edge id=":60_56_0" function="internal">
        <lane id=":60_56_0_0" index="0" speed="3.65" length="4.67" shape="599.74,561.58 598.68,560.59 598.42,559.74 598.95,559.01 600.26,558.42"/>
    </edge>
    <edge id=":60_90_0" function="internal">
        <lane id=":60_90_0_0" index="0" speed="3.65" length="4.67" shape="600.72,898.57 601.43,899.82 601.43,900.72 600.72,901.25 599.28,901.43"/>
    </edge>
    <edge id=":62_83_0" function="internal">
        <lane id=":62_83_0_0" index="0" speed="3.65" length="4.67" shape="620.00,828.40 621.20,829.20 621.60,830.00 621.20,830.80 620.00,831.60"/>
    </edge>
    <edge id=":64_74_0" function="internal">
        <lane id=":64_74_0_0" index="0" speed="3.65" length="4.67" shape="640.67,738.55 641.42,739.78 641.45,740.67 640.75,741.23 639.33,741.45"/>
    </edge>
    <edge id=":65_73_0" function="internal">
        <lane id=":65_73_0_0" index="0" speed="3.65" length="4.67" shape="649.61,731.55 648.64,730.49 648.45,729.61 649.03,728.93 650.39,728.45"/>
    </edge>
    <edge id=":65_78_0" function="internal">
        <lane id=":65_78_0_0" index="0" speed="3.65" length="4.67" shape="648.40,780.00 649.20,778.80 650.00,778.40 650.80,778.80 651.60,780.00"/>
    </edge>
    <edge id=":65_99_0" function="internal">
        <lane id=":65_99_0_0" index="0" speed="3.65" length="4.67" shape="651.60,990.00 650.80,991.20 650.00,991.60 649.20,991.20 648.40,990.00"/>
    </edge>
    <edge id=":66_69_0" function="internal">
        <lane id=":66_69_0_0" index="0" speed="13.89" length="0.10" shape="661.47,690.62 661.50,690.55"/>
    </edge>
    <edge id=":66_69_1" function="internal">
        <lane id=":66_69_1_0" index="0" speed="3.65" length="2.34" shape="661.47,690.62 660.27,691.42 659.38,691.47"/>
    </edge>
    <edge id=":66_69_4" function="internal">
        <lane id=":66_69_4_0" index="0" speed="3.65" length="2.34" shape="659.38,691.47 658.80,690.80 658.53,689.38"/>
    </edge>
    <edge id=":66_69_2" function="internal">
        <lane id=":66_69_2_0" index="0" speed="13.89" length="0.10" shape="658.50,689.45 658.53,689.38"/>
    </edge>
    <edge id=":66_69_3" function="internal">
        <lane id=":66_69_3_0" index="0" speed="3.65" length="2.34" shape="658.50,689.45 659.66,688.60 660.55,688.50"/>
    </edge>
    <edge id=":66_69_5" function="internal">
        <lane id=":66_69_5_0" index="0" speed="3.65" length="2.34" shape="660.55,688.50 661.16,689.15 661.50,690.55"/>
    </edge>
    <edge id=":69_74_0" function="internal">
        <lane id=":69_74_0_0" index="0" speed="3.65" length="4.67" shape="690.39,738.45 691.36,739.51 691.55,740.39 690.97,741.07 689.61,741.55"/>
    </edge>
    <edge id=":69_84_0" function="internal">
        <lane id=":69_84_0_0" index="0" speed="3.65" length="4.67" shape="691.55,840.39 690.49,841.36 689.61,841.55 688.93,840.97 688.45,839.61"/>
    </edge>
    <edge id=":6_17_0" function="internal">
        <lane id=":6_17_0_0" index="0" speed="3.65" length="4.67" shape="60.00,171.60 58.80,170.80 58.40,170.00 58.80,169.20 60.00,168.40"/>
    </edge>
    <edge id=":6_37_0" function="internal">
        <lane id=":6_37_0_0" index="0" speed="3.65" length="4.67" shape="60.00,371.60 58.80,370.80 58.40,370.00 58.80,369.20 60.00,368.40"/>
    </edge>
    <edge id=":70_0_0" function="internal">
        <lane id=":70_0_0_0" index="0" speed="3.65" length="4.67" shape="698.40,0.00 699.20,-1.20 700.00,-1.60 700.80,-1.20 701.60,0.00"/>
    </edge>
    <edge id=":70_14_0" function="internal">
        <lane id=":70_14_0_0" index="0" speed="3.65" length="4.67" shape="700.00,141.60 698.80,140.80 698.40,140.00 698.80,139.20 700.00,138.40"/>
    </edge>
    <edge id=":70_18_0" function="internal">
        <lane id=":70_18_0_0" index="0" speed="3.65" length="4.67" shape="700.00,178.40 701.20,179.20 701.60,180.00 701.20,180.80 700.00,181.60"/>
    </edge>
    <edge id=":70_22_0" function="internal">
        <lane id=":70_22_0_0" index="0" speed="3.65" length="4.67" shape="700.00,221.60 698.80,220.80 698.40,220.00 698.80,219.20 700.00,218.40"/>
    </edge>
    <edge id=":70_27_0" function="internal">
        <lane id=":70_27_0_0" index="0" speed="3.65" length="4.67" shape="700.00,271.60 698.80,270.80 698.40,270.00 698.80,269.20 700.00,268.40"/>
    </edge>
    <edge id=":70_3_0" function="internal">
        <lane id=":70_3_0_0" index="0" speed="3.65" length="4.67" shape="700.00,28.40 701.20,29.20 701.60,30.00 701.20,30.80 700.00,31.60"/>
    </edge>
    <edge id=":70_34_0" function="internal">
        <lane id=":70_34_0_0" index="0" speed="3.65" length="4.67" shape="701.60,340.00 700.80,341.20 700.00,341.60 699.20,341.20 698.40,340.00"/>
    </edge>
    <edge id=":70_59_0" function="internal">
        <lane id=":70_59_0_0" index="0" speed="3.65" length="4.67" shape="700.72,588.57 701.43,589.82 701.43,590.72 700.72,591.25 699.28,591.43"/>
    </edge>
    <edge id=":70_60_0" function="internal">
        <lane id=":70_60_0_0" index="0" speed="3.65" length="4.67" shape="699.74,601.58 698.68,600.59 698.42,599.74 698.95,599.01 700.26,598.42"/>
    </edge>
    <edge id=":70_7_0" function="internal">
        <lane id=":70_7_0_0" index="0" speed="3.65" length="4.67" shape="700.00,71.60 698.80,70.80 698.40,70.00 698.80,69.20 700.00,68.40"/>
    </edge>
    <edge id=":70_80_0" function="internal">
        <lane id=":70_80_0_0" index="0" speed="3.65" length="4.67" shape="698.45,799.61 699.51,798.64 700.39,798.45 701.07,799.03 701.55,800.39"/>
    </edge>
    <edge id=":70_82_0" function="internal">
        <lane id=":70_82_0_0" index="0" speed="3.65" length="4.67" shape="698.44,820.36 698.95,819.01 699.64,818.44 700.51,818.65 701.56,819.64"/>
    </edge>
    <edge id=":71_80_0" function="internal">
        <lane id=":71_80_0_0" index="0" speed="3.65" length="4.67" shape="711.60,800.00 710.80,801.20 710.00,801.60 709.20,801.20 708.40,800.00"/>
    </edge>
    <edge id=":72_35_0" function="internal">
        <lane id=":72_35_0_0" index="0" speed="3.65" length="4.67" shape="720.00,351.60 718.80,350.80 718.40,350.00 718.80,349.20 720.00,348.40"/>
    </edge>
    <edge id=":72_38_0" function="internal">
        <lane id=":72_38_0_0" index="0" speed="3.65" length="4.67" shape="720.00,378.40 721.20,379.20 721.60,380.00 721.20,380.80 720.00,381.60"/>
    </edge>
    <edge id=":72_54_0" function="internal">
        <lane id=":72_54_0_0" index="0" speed="3.65" length="4.67" shape="720.72,538.57 721.43,539.82 721.43,540.72 720.72,541.25 719.28,541.43"/>
    </edge>
    <edge id=":72_89_0" function="internal">
        <lane id=":72_89_0_0" index="0" speed="3.65" length="4.67" shape="720.00,891.60 718.80,890.80 718.40,890.00 718.80,889.20 720.00,888.40"/>
    </edge>
    <edge id=":73_45_0" function="internal">
        <lane id=":73_45_0_0" index="0" speed="3.65" length="4.67" shape="730.00,448.40 731.20,449.20 731.60,450.00 731.20,450.80 730.00,451.60"/>
    </edge>
    <edge id=":73_52_0" function="internal">
        <lane id=":73_52_0_0" index="0" speed="3.65" length="4.67" shape="728.87,518.87 730.28,518.59 731.13,518.87 731.41,519.72 731.13,521.13"/>
    </edge>
    <edge id=":74_22_0" function="internal">
        <lane id=":74_22_0_0" index="0" speed="3.65" length="4.67" shape="740.00,218.40 741.20,219.20 741.60,220.00 741.20,220.80 740.00,221.60"/>
    </edge>
    <edge id=":74_27_0" function="internal">
        <lane id=":74_27_0_0" index="0" speed="3.65" length="4.67" shape="740.00,268.40 741.20,269.20 741.60,270.00 741.20,270.80 740.00,271.60"/>
    </edge>
    <edge id=":74_50_0" function="internal">
        <lane id=":74_50_0_0" index="0" speed="7.43" length="2.67" shape="741.44,498.86 741.55,499.64 741.55,500.19 741.42,500.72 741.12,501.45"/>
    </edge>
    <edge id=":74_50_1" function="internal">
        <lane id=":74_50_1_0" index="0" speed="3.65" length="2.71" shape="741.44,498.86 740.84,500.17 740.11,500.69 739.75,500.57"/>
    </edge>
    <edge id=":74_50_4" function="internal">
        <lane id=":74_50_4_0" index="0" speed="3.65" length="1.96" shape="739.75,500.57 739.25,500.41 738.28,499.35"/>
    </edge>
    <edge id=":74_50_2" function="internal">
        <lane id=":74_50_2_0" index="0" speed="13.89" length="0.89" shape="738.17,500.21 738.27,499.97 738.32,499.79 738.32,499.61 738.28,499.35"/>
    </edge>
    <edge id=":74_50_3" function="internal">
        <lane id=":74_50_3_0" index="0" speed="3.65" length="1.97" shape="738.17,500.21 739.38,499.42 739.90,499.38"/>
    </edge>
    <edge id=":74_50_5" function="internal">
        <lane id=":74_50_5_0" index="0" speed="3.65" length="2.71" shape="739.90,499.38 740.27,499.36 740.85,500.04 741.12,501.45"/>
    </edge>
    <edge id=":74_51_0" function="internal">
        <lane id=":74_51_0_0" index="0" speed="3.65" length="4.67" shape="739.33,511.45 738.58,510.22 738.55,509.33 739.25,508.77 740.67,508.55"/>
    </edge>
    <edge id=":74_61_0" function="internal">
        <lane id=":74_61_0_0" index="0" speed="3.65" length="4.67" shape="738.50,609.44 739.67,608.60 740.56,608.50 741.17,609.16 741.50,610.56"/>
    </edge>
    <edge id=":74_7_0" function="internal">
        <lane id=":74_7_0_0" index="0" speed="3.65" length="4.67" shape="740.00,68.40 741.20,69.20 741.60,70.00 741.20,70.80 740.00,71.60"/>
    </edge>
    <edge id=":75_81_0" function="internal">
        <lane id=":75_81_0_0" index="0" speed="3.65" length="4.67" shape="748.40,810.00 749.20,808.80 750.00,808.40 750.80,808.80 751.60,810.00"/>
    </edge>
    <edge id=":75_85_0" function="internal">
        <lane id=":75_85_0_0" index="0" speed="3.65" length="4.67" shape="751.60,850.00 750.80,851.20 750.00,851.60 749.20,851.20 748.40,850.00"/>
    </edge>
    <edge id=":76_14_0" function="internal">
        <lane id=":76_14_0_0" index="0" speed="3.65" length="4.67" shape="758.40,140.00 759.20,138.80 760.00,138.40 760.80,138.80 761.60,140.00"/>
    </edge>
    <edge id=":76_35_0" function="internal">
        <lane id=":76_35_0_0" index="0" speed="3.65" length="4.67" shape="761.60,350.00 760.80,351.20 760.00,351.60 759.20,351.20 758.40,350.00"/>
    </edge>
    <edge id=":76_61_0" function="internal">
        <lane id=":76_61_0_0" index="0" speed="3.65" length="4.67" shape="760.26,608.42 761.32,609.41 761.58,610.26 761.05,610.99 759.74,611.58"/>
    </edge>
    <edge id=":76_81_0" function="internal">
        <lane id=":76_81_0_0" index="0" speed="3.65" length="4.67" shape="760.36,808.44 761.35,809.49 761.56,810.36 760.99,811.05 759.64,811.56"/>
    </edge>
    <edge id=":76_89_0" function="internal">
        <lane id=":76_89_0_0" index="0" speed="3.65" length="4.67" shape="760.00,888.40 761.20,889.20 761.60,890.00 761.20,890.80 760.00,891.60"/>
    </edge>
    <edge id=":80_74_0" function="internal">
        <lane id=":80_74_0_0" index="0" speed="3.65" length="4.67" shape="800.00,741.60 798.80,740.80 798.40,740.00 798.80,739.20 800.00,738.40"/>
    </edge>
    <edge id=":81_54_0" function="internal">
        <lane id=":81_54_0_0" index="0" speed="3.65" length="4.67" shape="811.43,540.72 810.18,541.43 809.28,541.43 808.75,540.72 808.57,539.28"/>
    </edge>
    <edge id=":81_60_0" function="internal">
        <lane id=":81_60_0_0" index="0" speed="3.65" length="4.67" shape="810.00,601.60 808.80,600.80 808.40,600.00 808.80,599.20 810.00,598.40"/>
    </edge>
    <edge id=":81_66_0" function="internal">
        <lane id=":81_66_0_0" index="0" speed="3.65" length="4.67" shape="810.00,661.60 808.80,660.80 808.40,660.00 808.80,659.20 810.00,658.40"/>
    </edge>
    <edge id=":82_70_0" function="internal">
        <lane id=":82_70_0_0" index="0" speed="3.65" length="4.67" shape="820.00,701.60 818.80,700.80 818.40,700.00 818.80,699.20 820.00,698.40"/>
    </edge>
    <edge id=":82_79_0" function="internal">
        <lane id=":82_79_0_0" index="0" speed="3.65" length="4.67" shape="820.00,791.60 818.80,790.80 818.40,790.00 818.80,789.20 820.00,788.40"/>
    </edge>
    <edge id=":82_87_0" function="internal">
        <lane id=":82_87_0_0" index="0" speed="3.65" length="4.67" shape="821.60,870.00 820.80,871.20 820.00,871.60 819.20,871.20 818.40,870.00"/>
    </edge>
    <edge id=":83_0_0" function="internal">
        <lane id=":83_0_0_0" index="0" speed="3.65" length="4.67" shape="828.40,0.00 829.20,-1.20 830.00,-1.60 830.80,-1.20 831.60,0.00"/>
    </edge>
    <edge id=":83_14_0" function="internal">
        <lane id=":83_14_0_0" index="0" speed="3.65" length="4.67" shape="831.60,140.00 830.80,141.20 830.00,141.60 829.20,141.20 828.40,140.00"/>
    </edge>
    <edge id=":83_50_0" function="internal">
        <lane id=":83_50_0_0" index="0" speed="3.65" length="4.67" shape="828.57,499.28 829.82,498.57 830.72,498.57 831.25,499.28 831.43,500.72"/>
    </edge>
    <edge id=":84_14_0" function="internal">
        <lane id=":84_14_0_0" index="0" speed="3.65" length="4.67" shape="840.00,138.40 841.20,139.20 841.60,140.00 841.20,140.80 840.00,141.60"/>
    </edge>
    <edge id=":86_57_0" function="internal">
        <lane id=":86_57_0_0" index="0" speed="3.65" length="4.67" shape="858.40,570.00 859.20,568.80 860.00,568.40 860.80,568.80 861.60,570.00"/>
    </edge>
    <edge id=":86_60_0" function="internal">
        <lane id=":86_60_0_0" index="0" speed="3.65" length="4.67" shape="860.00,598.40 861.20,599.20 861.60,600.00 861.20,600.80 860.00,601.60"/>
    </edge>
    <edge id=":86_66_0" function="internal">
        <lane id=":86_66_0_0" index="0" speed="3.65" length="4.67" shape="860.00,658.40 861.20,659.20 861.60,660.00 861.20,660.80 860.00,661.60"/>
    </edge>
    <edge id=":86_69_0" function="internal">
        <lane id=":86_69_0_0" index="0" speed="3.65" length="4.67" shape="860.00,691.60 858.80,690.80 858.40,690.00 858.80,689.20 860.00,688.40"/>
    </edge>
    <edge id=":86_70_0" function="internal">
        <lane id=":86_70_0_0" index="0" speed="6.51" length="9.03" shape="858.40,707.20 858.05,704.75 857.00,703.00 855.25,701.95 852.80,701.60"/>
    </edge>
    <edge id=":86_70_1" function="internal">
        <lane id=":86_70_1_0" index="0" speed="13.89" length="14.40" shape="858.40,707.20 858.40,692.80"/>
    </edge>
    <edge id=":86_70_2" function="internal">
        <lane id=":86_70_2_0" index="0" speed="3.65" length="2.34" shape="858.40,707.20 859.20,706.00 860.00,705.60"/>
    </edge>
    <edge id=":86_70_9" function="internal">
        <lane id=":86_70_9_0" index="0" speed="3.65" length="2.34" shape="860.00,705.60 860.80,706.00 861.60,707.20"/>
    </edge>
    <edge id=":86_70_3" function="internal">
        <lane id=":86_70_3_0" index="0" speed="13.89" length="14.40" shape="861.60,692.80 861.60,707.20"/>
    </edge>
    <edge id=":86_70_4" function="internal">
        <lane id=":86_70_4_0" index="0" speed="8.00" length="5.93" shape="861.60,692.80 861.05,696.65 860.00,698.40"/>
    </edge>
    <edge id=":86_70_5" function="internal">
        <lane id=":86_70_5_0" index="0" speed="3.65" length="2.34" shape="861.60,692.80 860.80,694.00 860.00,694.40"/>
    </edge>
    <edge id=":86_70_10" function="internal">
        <lane id=":86_70_10_0" index="0" speed="8.00" length="8.26" shape="860.00,698.40 859.40,699.40 856.65,701.05 852.80,701.60"/>
    </edge>
    <edge id=":86_70_11" function="internal">
        <lane id=":86_70_11_0" index="0" speed="3.65" length="2.34" shape="860.00,694.40 859.20,694.00 858.40,692.80"/>
    </edge>
    <edge id=":86_70_6" function="internal">
        <lane id=":86_70_6_0" index="0" speed="6.51" length="9.03" shape="852.80,698.40 855.25,698.05 857.00,697.00 858.05,695.25 858.40,692.80"/>
    </edge>
    <edge id=":86_70_7" function="internal">
        <lane id=":86_70_7_0" index="0" speed="8.00" length="14.19" shape="852.80,698.40 856.65,698.95 859.40,700.60 861.05,703.35 861.60,707.20"/>
    </edge>
    <edge id=":86_70_8" function="internal">
        <lane id=":86_70_8_0" index="0" speed="3.65" length="4.67" shape="852.80,698.40 854.00,699.20 854.40,700.00 854.00,700.80 852.80,701.60"/>
    </edge>
    <edge id=":86_74_0" function="internal">